------- AeroDyn Driver v1.00.x Input File -------------------------------------
UAE 20kW Turbine
=======  General Options  ==============================
False         Echo               -   Echo the input to "<rootname>.ech"?  (flag)
"NREL_PhaseVI_UAE_AD15.dat"    AD_InputFile    -  Name of the primary AeroDyn input file
------- Turbine Data ------------------------------
          2   NumBlades       - Number of blades (-)
      0.508   HubRad          - Hub radius (m)
       12.0   HubHt           - Hub height (m)
     -1.401   Overhang        - Overhang (m)
        0.0   ShftTilt        - Shaft tilt (deg)
        0.0   Precone         - Blade precone (deg)
------- I/O Settings ------------------------------
"NREL_PhaseVI_UAE"    OutFileRoot     -   Root name for any output files (use "" for .dvr rootname) (-)
True          TabDel          - When   generating formatted output (OutForm=True), make output tab-delimited     (fixed-width otherwise) (flag)
"ES20.3E2"    OutFmt          -    Format used for text tabular output, excluding the time channel.  Resulting field  should be 10 characters. (quoted string)
False         Beep            - Beep     on exit (flag)
-------  Combined-Case Analysis  ------------------------------
          1   NumCases        - Number of cases to run
WndSpeed       ShearExp       RotSpd        Pitch               Yaw           dT             Tmax
(m/s)            (-)          (rpm)         (deg)               (deg)          (s)            (s)
5.0000000E+00  0.0000000E+00  7.1900000E+01  0.0000000E+00  0.0000000E+00  1.0000000E-01  0.2000000E+00
#
6.0000000E+00  0.0000000E+00  7.1900000E+01  0.0000000E+00  0.0000000E+00  1.0000000E-01  5.0000000E+00
7.0000000E+00  0.0000000E+00  7.1900000E+01  0.0000000E+00  0.0000000E+00  1.0000000E-01  5.0000000E+00
8.0000000E+00  0.0000000E+00  7.1900000E+01  0.0000000E+00  0.0000000E+00  1.0000000E-01  5.0000000E+00
9.0000000E+00  0.0000000E+00  7.1900000E+01  0.0000000E+00  0.0000000E+00  1.0000000E-01  5.0000000E+00
1.0000000E+01  0.0000000E+00  7.1900000E+01  0.0000000E+00  0.0000000E+00  1.0000000E-01  5.0000000E+00
1.1000000E+01  0.0000000E+00  7.1900000E+01  0.0000000E+00  0.0000000E+00  1.0000000E-01  5.0000000E+00
1.2000000E+01  0.0000000E+00  7.1900000E+01  0.0000000E+00  0.0000000E+00  1.0000000E-01  5.0000000E+00
1.3000000E+01  0.0000000E+00  7.1900000E+01  0.0000000E+00  0.0000000E+00  1.0000000E-01  5.0000000E+00
1.4000000E+01  0.0000000E+00  7.1900000E+01  0.0000000E+00  0.0000000E+00  1.0000000E-01  5.0000000E+00
1.5000000E+01  0.0000000E+00  7.1900000E+01  0.0000000E+00  0.0000000E+00  1.0000000E-01  5.0000000E+00
1.6000000E+01  0.0000000E+00  7.1900000E+01  0.0000000E+00  0.0000000E+00  1.0000000E-01  5.0000000E+00
1.7000000E+01  0.0000000E+00  7.1900000E+01  0.0000000E+00  0.0000000E+00  1.0000000E-01  5.0000000E+00
1.8000000E+01  0.0000000E+00  7.1900000E+01  0.0000000E+00  0.0000000E+00  1.0000000E-01  5.0000000E+00
1.9000000E+01  0.0000000E+00  7.1900000E+01  0.0000000E+00  0.0000000E+00  1.0000000E-01  5.0000000E+00
2.0000000E+01  0.0000000E+00  7.1900000E+01  0.0000000E+00  0.0000000E+00  1.0000000E-01  5.0000000E+00
2.1000000E+01  0.0000000E+00  7.1900000E+01  0.0000000E+00  0.0000000E+00  1.0000000E-01  5.0000000E+00
2.2000000E+01  0.0000000E+00  7.1900000E+01  0.0000000E+00  0.0000000E+00  1.0000000E-01  5.0000000E+00
2.3000000E+01  0.0000000E+00  7.1900000E+01  0.0000000E+00  0.0000000E+00  1.0000000E-01  5.0000000E+00
2.4000000E+01  0.0000000E+00  7.1900000E+01  0.0000000E+00  0.0000000E+00  1.0000000E-01  5.0000000E+00
2.5000000E+01  0.0000000E+00  7.1900000E+01  0.0000000E+00  0.0000000E+00  1.0000000E-01  5.0000000E+00