-------  ELASTODYN V1.00.* INDIVIDUAL BLADE INPUT FILE  --------------------------
DTU 10MW onshore reference wind turbine v0.1 - OpenFAST v2.4
---------------------- BLADE PARAMETERS ----------------------------------------
         40   NBlInpSt    - Number of blade input stations (-)
        3.0   BldFlDmp(1) - Blade flap mode #1 structural damping in percent of critical (%)
        8.4   BldFlDmp(2) - Blade flap mode #2 structural damping in percent of critical (%)
        3.0   BldEdDmp(1) - Blade edge mode #1 structural damping in percent of critical (%)
---------------------- BLADE ADJUSTMENT FACTORS --------------------------------
        1.0   FlStTunr(1) - Blade flapwise modal stiffness tuner, 1st mode (-)
        1.0   FlStTunr(2) - Blade flapwise modal stiffness tuner, 2nd mode (-)
        1.0   AdjBlMs     - Factor to adjust blade mass density (-)  
        1.0   AdjFlSt     - Factor to adjust blade flap stiffness (-)
        1.0   AdjEdSt     - Factor to adjust blade edge stiffness (-)
---------------------- DISTRIBUTED BLADE PROPERTIES ----------------------------
          BlFract          PitchAxis          StrcTwst          BMassDen          FlpStff          EdgStff          GJStff          EAStff          Alpha          FlpIner          EdgIner          PrecrvRef          PreswpRef          FlpcgOf          EdgcgOf          FlpEAOf          EdgEAOf
              (-)              (-)              (deg)              (kg/m)              (Nm^2)              (Nm^2)              (Nm^2)              (N)              (-)              (kg m)              (kg m)              (m)              (m)              (m)              (m)              (m)              (m)
0.00000	 0.00000	 -0.37853	 1199.09212	 62797512680.12431	 61334753714.07810	 27528864778.67542	 17984166586.48228	 0.00000	 3991.79937	 3727.70281	 -0.01102	 -0.00595	 0.00425	 -0.00697	 0.00119	 0.00000	
0.02564	 0.00036	 1.28554	 1187.23838	 61476393479.98429	 59600328636.78424	 26441026740.64710	 17878017689.09473	 0.00000	 3866.32691	 3653.46697	 -0.02023	 0.00583	 0.01911	 0.00473	 0.01747	 0.00000	
0.05128	 0.00604	 -2.54245	 1120.53414	 55462680590.68114	 53443268846.51362	 22556882587.73507	 16943780706.76133	 0.00000	 3413.57534	 3326.64040	 -0.02709	 0.01785	 0.03569	 0.01526	 0.02217	 0.00000	
0.07692	 0.02365	 45.09514	 1040.06600	 42846849198.40955	 50243137956.68218	 17846674566.45152	 15825035349.07507	 0.00000	 2675.98802	 3061.11132	 -0.02671	 0.04349	 0.10313	 0.03726	 0.07982	 0.00000	
0.10256	 0.06454	 30.81691	 947.87911	 32956297891.08428	 41394282975.49763	 12410669554.62644	 14428432815.05890	 0.00000	 2046.78020	 2578.46943	 -0.01700	 0.07522	 0.24446	 0.07305	 0.20156	 0.00000	
0.12821	 0.11266	 21.51145	 881.03425	 24662002632.77857	 35080767110.91059	 8317412771.17484	 13436621886.39280	 0.00000	 1488.79850	 2300.22776	 -0.00781	 0.07812	 0.44118	 0.08242	 0.38817	 0.00000	
0.15385	 0.15716	 14.18796	 844.59830	 19037304046.53861	 31704286036.33356	 5991679875.50195	 12880920533.23397	 0.00000	 1120.00048	 2161.41406	 -0.00715	 0.06556	 0.61555	 0.07339	 0.55097	 0.00000	
0.17949	 0.17884	 10.93505	 774.31968	 14742515348.04045	 27455152910.12196	 4033808808.01762	 11671562978.63289	 0.00000	 853.29841	 1962.91905	 -0.01610	 0.07192	 0.70421	 0.08218	 0.60515	 0.00000	
0.20513	 0.17901	 8.46802	 725.07161	 12172799590.33278	 24808985827.42064	 3180320952.64475	 10832251480.30550	 0.00000	 697.14306	 1850.30334	 -0.03429	 0.08478	 0.66667	 0.09381	 0.53739	 0.00000	
0.23077	 0.19484	 7.16799	 671.42672	 10019888347.81852	 21781378760.86026	 2348865062.24881	 9939119009.80464	 0.00000	 571.63290	 1677.90124	 -0.05853	 0.07809	 0.70005	 0.08541	 0.55125	 0.00000	
0.25641	 0.20628	 6.32544	 633.97872	 8456896959.84256	 19079675879.73728	 1837582761.72874	 9311740563.14360	 0.00000	 481.37817	 1532.67208	 -0.08741	 0.07304	 0.69806	 0.07928	 0.52539	 0.00000	
0.28205	 0.21393	 4.90732	 593.77764	 6903664880.05121	 18759745692.10682	 1423639263.88373	 8718397491.33873	 0.00000	 393.12786	 1452.61127	 -0.12299	 0.06173	 0.73848	 0.06786	 0.57895	 0.00000	
0.30769	 0.21628	 4.47621	 578.40515	 5938315358.12777	 17391619321.13983	 1208508035.90344	 8526327233.22264	 0.00000	 336.81729	 1348.86283	 -0.16145	 0.05335	 0.71766	 0.05968	 0.55202	 0.00000	
0.33333	 0.22089	 4.16515	 557.97964	 5107045592.34658	 15873979899.44253	 1028762659.82922	 8298301929.20712	 0.00000	 287.84609	 1230.43898	 -0.20634	 0.04637	 0.70850	 0.05303	 0.53727	 0.00000	
0.35897	 0.22262	 3.99181	 535.28877	 4412211101.17474	 13949844394.11164	 868439142.35743	 8021700951.42817	 0.00000	 247.05719	 1096.12156	 -0.25508	 0.04211	 0.67807	 0.04900	 0.49454	 0.00000	
0.38462	 0.22473	 3.66614	 511.23117	 3814274094.37308	 12478980162.78255	 748927077.32453	 7773795370.12801	 0.00000	 211.80768	 976.02090	 -0.30985	 0.04015	 0.64705	 0.04691	 0.47053	 0.00000	
0.41026	 0.22416	 3.29653	 491.58500	 3271564650.57188	 11287879222.55295	 637608928.73838	 7512453035.51339	 0.00000	 181.02454	 877.39174	 -0.37136	 0.03921	 0.62388	 0.04586	 0.45214	 0.00000	
0.43590	 0.22454	 2.99782	 470.17649	 2798484969.86841	 9996914533.08265	 538656259.17099	 7231153907.66281	 0.00000	 154.16435	 777.24365	 -0.43193	 0.03851	 0.60061	 0.04505	 0.43361	 0.00000	
0.46154	 0.22341	 2.72078	 446.75666	 2381529238.27705	 8747191424.74294	 458524281.40020	 6920803277.18079	 0.00000	 130.55482	 681.27321	 -0.50111	 0.03746	 0.57679	 0.04382	 0.40767	 0.00000	
0.48718	 0.22364	 2.41671	 426.06847	 2024061373.31422	 7737970413.79258	 393743438.41064	 6633563475.71231	 0.00000	 110.57349	 604.34237	 -0.57711	 0.03608	 0.56213	 0.04227	 0.39337	 0.00000	
0.51282	 0.22319	 2.22199	 397.44242	 1707550358.26683	 6472011597.25849	 328097133.79157	 6249156802.66992	 0.00000	 92.77392	 503.30481	 -0.65283	 0.03596	 0.51443	 0.04167	 0.35950	 0.00000	
0.53846	 0.22320	 1.95975	 376.96983	 1447774423.53012	 5693307739.17991	 282626635.05383	 5959268515.91367	 0.00000	 78.41137	 441.46604	 -0.73578	 0.03450	 0.49562	 0.03991	 0.34703	 0.00000	
0.56410	 0.22285	 1.74629	 352.88618	 1221203834.08512	 4876566743.20479	 236518250.59493	 5622157185.80903	 0.00000	 65.85252	 375.53338	 -0.82786	 0.03377	 0.46717	 0.03884	 0.32762	 0.00000	
0.58974	 0.22214	 1.57575	 328.46560	 1031297690.48006	 4057591065.21382	 201114477.71784	 5281113536.56138	 0.00000	 55.35105	 310.40352	 -0.91826	 0.03275	 0.43227	 0.03742	 0.30183	 0.00000	
0.61538	 0.22201	 1.40285	 308.19188	 870551204.26930	 3483136045.26951	 171933304.48662	 4975831525.65501	 0.00000	 46.60334	 267.18852	 -1.01894	 0.03104	 0.41657	 0.03554	 0.28899	 0.00000	
0.64103	 0.22153	 1.25044	 284.30546	 732641206.04949	 2878765944.55965	 144725479.22257	 4632388699.39221	 0.00000	 39.03376	 219.07833	 -1.12813	 0.03056	 0.38166	 0.03457	 0.26919	 0.00000	
0.66667	 0.21935	 1.13616	 263.18543	 611976211.99135	 2404758787.03447	 122600232.40596	 4289261196.56182	 0.00000	 32.58077	 183.59721	 -1.23543	 0.02849	 0.35939	 0.03230	 0.25247	 0.00000	
0.69231	 0.21966	 1.01516	 240.60022	 510960835.30812	 1970078825.86604	 103535893.30166	 3944688959.86216	 0.00000	 27.14326	 149.84256	 -1.35550	 0.02742	 0.33639	 0.03093	 0.23748	 0.00000	
0.71795	 0.21865	 0.91341	 219.54993	 420451750.36013	 1632704257.72008	 87640145.11343	 3598295771.99441	 0.00000	 22.34212	 124.55415	 -1.48282	 0.02536	 0.32379	 0.02880	 0.22786	 0.00000	
0.74359	 0.21547	 0.83711	 196.73217	 340832927.89015	 1308754445.35984	 72597969.35059	 3228499038.63208	 0.00000	 18.06607	 99.57451	 -1.60967	 0.02398	 0.29983	 0.02715	 0.21277	 0.00000	
0.76923	 0.21524	 0.75506	 177.79946	 272938050.84266	 1070679716.64579	 60044770.56140	 2883639169.08280	 0.00000	 14.54439	 82.58695	 -1.74862	 0.02205	 0.29454	 0.02523	 0.20865	 0.00000	
0.79487	 0.21440	 0.67995	 156.73361	 215796860.02313	 843902655.46525	 49442061.09977	 2537553269.53708	 0.00000	 11.51114	 64.97224	 -1.89846	 0.02070	 0.27369	 0.02361	 0.19850	 0.00000	
0.82051	 0.21309	 0.64811	 139.23365	 169053570.67069	 677475842.29926	 41145890.41431	 2229165662.17783	 0.00000	 9.08789	 52.44428	 -2.04696	 0.01849	 0.26723	 0.02133	 0.19261	 0.00000	
0.84615	 0.21025	 0.58925	 119.46494	 128684872.93435	 523099100.29270	 33643313.99824	 1900744785.88117	 0.00000	 6.95947	 40.39390	 -2.20919	 0.01742	 0.25192	 0.02001	 0.18623	 0.00000	
0.87179	 0.20853	 0.54722	 100.82716	 93906709.32922	 400187639.04532	 25786087.72591	 1571008084.50567	 0.00000	 5.11777	 31.61321	 -2.38336	 0.01511	 0.25163	 0.01772	 0.18471	 0.00000	
0.89744	 0.20420	 0.56592	 85.13277	 67285455.46916	 309263330.02151	 21078432.30536	 1296573980.49436	 0.00000	 3.73570	 24.33809	 -2.55580	 0.01323	 0.24659	 0.01553	 0.18998	 0.00000	
0.92308	 0.20194	 0.54989	 67.92429	 43840547.71841	 215271460.42267	 15421757.76410	 1000444241.74758	 0.00000	 2.48019	 17.51461	 -2.73612	 0.01133	 0.24159	 0.01352	 0.18703	 0.00000	
0.94872	 0.19885	 0.61634	 50.63736	 24127904.15644	 139663161.90558	 10240080.06537	 716771430.34047	 0.00000	 1.40574	 11.41738	 -2.93012	 0.00827	 0.24743	 0.01031	 0.19368	 0.00000	
0.97436	 0.19422	 0.73403	 32.85231	 8816847.32945	 69975959.07668	 4972460.08351	 427337159.59563	 0.00000	 0.56548	 5.70139	 -3.13213	 0.00551	 0.23551	 0.00679	 0.20769	 0.00000	
1.00000	 0.21733	 0.96000	 15.42400	 1027500.00000	 12714000.00000	 793300.00000	 172200000.00000	 0.00000	 0.08104	 1.12270	 -3.33690	 0.00225	 0.16618	 0.00279	 0.16024	 0.00000	
---------------------- BLADE MODE SHAPES ---------------------------------------
0.1351	 BldFl1Sh(2) - Flap mode 1, coeff of x^2
0.1443	 BldFl1Sh(3) -            , coeff of x^3
1.2610	 BldFl1Sh(4) -            , coeff of x^4
0.08439	 BldFl1Sh(5) -            , coeff of x^5
-0.6245	 BldFl1Sh(6) -            , coeff of x^6
-1.245	 BldFl2Sh(2) - Flap mode 2, coeff of x^2
8.075	 BldFl2Sh(3) -            , coeff of x^3
-30.73	 BldFl2Sh(4) -            , coeff of x^4
42.07	 BldFl2Sh(5) -            , coeff of x^5
-17.17	 BldFl2Sh(6) -            , coeff of x^6
0.362	 BldEdgSh(2) - Edge mode 1, coeff of x^2
0.828	 BldEdgSh(3) -            , coeff of x^3
0.4562   BldEdgSh(4) -            , coeff of x^4
-0.7149	 BldEdgSh(5) -            , coeff of x^5
0.06974  BldEdgSh(6) -            , coeff of x^6