------- AERODYN v15.00.* BLADE DEFINITION INPUT FILE -------------------------------------
20 kW turbine from the Unsteady Aerodynamics Experiment. File developed while developing the OpenFAST.jl wrapper.
======  Blade Properties =================================================================
         92   NumBlNds           - Number of blade nodes used in the analysis (-)
  BlSpn        BlCrvAC        BlSwpAC        BlCrvAng       BlTwist        BlChord          BlAFID
   (m)           (m)            (m)            (deg)         (deg)           (m)              (-)
0.0000000E+00  0.0000000E+00  0.0000000E+00  0.0000000E+00  4.7949324E+00  2.1800000E-01        1
3.7500000E-01  0.0000000E+00  0.0000000E+00  0.0000000E+00  4.7949324E+00  1.8277992E-01        1
7.4950000E-01  0.0000000E+00  0.0000000E+00  0.0000000E+00  2.4834932E+01  7.3700000E-01        2
7.9471000E-01  0.0000000E+00  0.0000000E+00  0.0000000E+00  2.4100174E+01  7.3979045E-01        2
8.3992000E-01  0.0000000E+00  0.0000000E+00  0.0000000E+00  2.2757349E+01  7.2749912E-01        2
8.8513000E-01  0.0000000E+00  0.0000000E+00  0.0000000E+00  2.1728895E+01  7.2289375E-01        2
9.3034000E-01  0.0000000E+00  0.0000000E+00  0.0000000E+00  2.0700085E+01  7.1828768E-01        2
9.7555000E-01  0.0000000E+00  0.0000000E+00  0.0000000E+00  1.9678389E+01  7.1368686E-01        2
1.0007000E+00  0.0000000E+00  0.0000000E+00  0.0000000E+00  1.9115863E+01  7.1113195E-01        2
1.0207600E+00  0.0000000E+00  0.0000000E+00  0.0000000E+00  1.8687845E+01  7.0909627E-01        2
1.0659700E+00  0.0000000E+00  0.0000000E+00  0.0000000E+00  1.7851722E+01  7.0451018E-01        2
1.1111800E+00  0.0000000E+00  0.0000000E+00  0.0000000E+00  1.7133782E+01  6.9992438E-01        2
1.1563900E+00  0.0000000E+00  0.0000000E+00  0.0000000E+00  1.6461799E+01  6.9533544E-01        2
1.2016000E+00  0.0000000E+00  0.0000000E+00  0.0000000E+00  1.5804303E+01  6.9073439E-01        2
1.2468100E+00  0.0000000E+00  0.0000000E+00  0.0000000E+00  1.5166904E+01  6.8612292E-01        2
1.2920200E+00  0.0000000E+00  0.0000000E+00  0.0000000E+00  1.4555739E+01  6.8150557E-01        2
1.3372300E+00  0.0000000E+00  0.0000000E+00  0.0000000E+00  1.3976943E+01  6.7688688E-01        2
1.3824400E+00  0.0000000E+00  0.0000000E+00  0.0000000E+00  1.3436652E+01  6.7227137E-01        2
1.4276500E+00  0.0000000E+00  0.0000000E+00  0.0000000E+00  1.2941002E+01  6.6766360E-01        2
1.4728600E+00  0.0000000E+00  0.0000000E+00  0.0000000E+00  1.2487868E+01  6.6308961E-01        2
1.5180700E+00  0.0000000E+00  0.0000000E+00  0.0000000E+00  1.2051678E+01  6.5861246E-01        2
1.5632800E+00  0.0000000E+00  0.0000000E+00  0.0000000E+00  1.1631363E+01  6.5420273E-01        2
1.6084900E+00  0.0000000E+00  0.0000000E+00  0.0000000E+00  1.1228405E+01  6.4982320E-01        2
1.6537000E+00  0.0000000E+00  0.0000000E+00  0.0000000E+00  1.0844285E+01  6.4543663E-01        2
1.6989100E+00  0.0000000E+00  0.0000000E+00  0.0000000E+00  1.0480483E+01  6.4100581E-01        2
1.7441200E+00  0.0000000E+00  0.0000000E+00  0.0000000E+00  1.0138482E+01  6.3649350E-01        2
1.7893300E+00  0.0000000E+00  0.0000000E+00  0.0000000E+00  9.8151246E+00  6.3178239E-01        2
1.8345400E+00  0.0000000E+00  0.0000000E+00  0.0000000E+00  9.5128493E+00  6.2704654E-01        2
1.8556300E+00  0.0000000E+00  0.0000000E+00  0.0000000E+00  9.3797271E+00  6.2491843E-01        2
1.8797500E+00  0.0000000E+00  0.0000000E+00  0.0000000E+00  9.2290342E+00  6.2249436E-01        2
1.9249600E+00  0.0000000E+00  0.0000000E+00  0.0000000E+00  8.9521755E+00  6.1796794E-01        2
1.9701700E+00  0.0000000E+00  0.0000000E+00  0.0000000E+00  8.6844876E+00  6.1344590E-01        2
2.0153800E+00  0.0000000E+00  0.0000000E+00  0.0000000E+00  8.4281863E+00  6.0890690E-01        2
2.0605900E+00  0.0000000E+00  0.0000000E+00  0.0000000E+00  8.1854121E+00  6.0433020E-01        2
2.1058000E+00  0.0000000E+00  0.0000000E+00  0.0000000E+00  7.9537386E+00  5.9973508E-01        2
2.1510100E+00  0.0000000E+00  0.0000000E+00  0.0000000E+00  7.7320096E+00  5.9513997E-01        2
2.1962200E+00  0.0000000E+00  0.0000000E+00  0.0000000E+00  7.5215616E+00  5.9054485E-01        2
2.2414300E+00  0.0000000E+00  0.0000000E+00  0.0000000E+00  7.3237310E+00  5.8594974E-01        2
2.2866400E+00  0.0000000E+00  0.0000000E+00  0.0000000E+00  7.1398545E+00  5.8135462E-01        2
2.3318500E+00  0.0000000E+00  0.0000000E+00  0.0000000E+00  6.9712684E+00  5.7675951E-01        2
2.3770600E+00  0.0000000E+00  0.0000000E+00  0.0000000E+00  6.8181935E+00  5.7216439E-01        2
2.4222700E+00  0.0000000E+00  0.0000000E+00  0.0000000E+00  6.6711715E+00  5.6756928E-01        2
2.4674800E+00  0.0000000E+00  0.0000000E+00  0.0000000E+00  6.5277283E+00  5.6297416E-01        2
2.5126900E+00  0.0000000E+00  0.0000000E+00  0.0000000E+00  6.3878288E+00  5.5837905E-01        2
2.5579000E+00  0.0000000E+00  0.0000000E+00  0.0000000E+00  6.2514379E+00  5.5378393E-01        2
2.6031100E+00  0.0000000E+00  0.0000000E+00  0.0000000E+00  6.1185207E+00  5.4918882E-01        2
2.6483200E+00  0.0000000E+00  0.0000000E+00  0.0000000E+00  5.9890422E+00  5.4459370E-01        2
2.6602700E+00  0.0000000E+00  0.0000000E+00  0.0000000E+00  5.9553883E+00  5.4337911E-01        2
2.6935300E+00  0.0000000E+00  0.0000000E+00  0.0000000E+00  5.8697445E+00  5.4035419E-01        2
2.7387400E+00  0.0000000E+00  0.0000000E+00  0.0000000E+00  5.7624651E+00  5.3575513E-01        2
2.7839500E+00  0.0000000E+00  0.0000000E+00  0.0000000E+00  5.6593100E+00  5.3105519E-01        2
2.8291600E+00  0.0000000E+00  0.0000000E+00  0.0000000E+00  5.5606140E+00  5.2630798E-01        2
2.8743700E+00  0.0000000E+00  0.0000000E+00  0.0000000E+00  5.4667122E+00  5.2156708E-01        2
2.9195800E+00  0.0000000E+00  0.0000000E+00  0.0000000E+00  5.3779395E+00  5.1688608E-01        2
2.9647900E+00  0.0000000E+00  0.0000000E+00  0.0000000E+00  5.2946309E+00  5.1231858E-01        2
3.0100000E+00  0.0000000E+00  0.0000000E+00  0.0000000E+00  5.2149131E+00  5.0785448E-01        2
3.0552100E+00  0.0000000E+00  0.0000000E+00  0.0000000E+00  5.1361947E+00  5.0342108E-01        2
3.1004200E+00  0.0000000E+00  0.0000000E+00  0.0000000E+00  5.0587494E+00  4.9900267E-01        2
3.1456300E+00  0.0000000E+00  0.0000000E+00  0.0000000E+00  4.9828638E+00  4.9458388E-01        2
3.1908400E+00  0.0000000E+00  0.0000000E+00  0.0000000E+00  4.9088244E+00  4.9014933E-01        2
3.2360500E+00  0.0000000E+00  0.0000000E+00  0.0000000E+00  4.8369177E+00  4.8568364E-01        2
3.2812600E+00  0.0000000E+00  0.0000000E+00  0.0000000E+00  4.7673849E+00  4.8116975E-01        2
3.3264700E+00  0.0000000E+00  0.0000000E+00  0.0000000E+00  4.6986974E+00  4.7654503E-01        2
3.3716800E+00  0.0000000E+00  0.0000000E+00  0.0000000E+00  4.6300622E+00  4.7182987E-01        2
3.4168900E+00  0.0000000E+00  0.0000000E+00  0.0000000E+00  4.5615764E+00  4.6708709E-01        2
3.4621000E+00  0.0000000E+00  0.0000000E+00  0.0000000E+00  4.4933367E+00  4.6237947E-01        2
3.5073100E+00  0.0000000E+00  0.0000000E+00  0.0000000E+00  4.4254401E+00  4.5776981E-01        2
3.5152000E+00  0.0000000E+00  0.0000000E+00  0.0000000E+00  4.4136333E+00  4.5698005E-01        2
3.5525200E+00  0.0000000E+00  0.0000000E+00  0.0000000E+00  4.3578319E+00  4.5345658E-01        2
3.5977300E+00  0.0000000E+00  0.0000000E+00  0.0000000E+00  4.2907301E+00  4.4899466E-01        2
3.6429400E+00  0.0000000E+00  0.0000000E+00  0.0000000E+00  4.2240128E+00  4.4439954E-01        2
3.6881500E+00  0.0000000E+00  0.0000000E+00  0.0000000E+00  4.1575833E+00  4.3980443E-01        2
3.7333600E+00  0.0000000E+00  0.0000000E+00  0.0000000E+00  4.0914564E+00  4.3520931E-01        2
3.7785700E+00  0.0000000E+00  0.0000000E+00  0.0000000E+00  4.0256472E+00  4.3061420E-01        2
3.8237800E+00  0.0000000E+00  0.0000000E+00  0.0000000E+00  3.9601707E+00  4.2601908E-01        2
3.8689900E+00  0.0000000E+00  0.0000000E+00  0.0000000E+00  3.8950420E+00  4.2142397E-01        2
3.9142000E+00  0.0000000E+00  0.0000000E+00  0.0000000E+00  3.8302306E+00  4.1682885E-01        2
3.9594100E+00  0.0000000E+00  0.0000000E+00  0.0000000E+00  3.7656219E+00  4.1223374E-01        2
4.0046200E+00  0.0000000E+00  0.0000000E+00  0.0000000E+00  3.7012349E+00  4.0763862E-01        2
4.0498300E+00  0.0000000E+00  0.0000000E+00  0.0000000E+00  3.6370980E+00  4.0304351E-01        2
4.0950400E+00  0.0000000E+00  0.0000000E+00  0.0000000E+00  3.5732398E+00  3.9844839E-01        2
4.1402500E+00  0.0000000E+00  0.0000000E+00  0.0000000E+00  3.5096888E+00  3.9385328E-01        2
4.1854600E+00  0.0000000E+00  0.0000000E+00  0.0000000E+00  3.4464734E+00  3.8925816E-01        2
4.2306700E+00  0.0000000E+00  0.0000000E+00  0.0000000E+00  3.3834789E+00  3.8492055E-01        2
4.2695500E+00  0.0000000E+00  0.0000000E+00  0.0000000E+00  3.3293427E+00  3.8124382E-01        2
4.2758800E+00  0.0000000E+00  0.0000000E+00  0.0000000E+00  3.3205310E+00  3.8061117E-01        2
4.3210900E+00  0.0000000E+00  0.0000000E+00  0.0000000E+00  3.2575257E+00  3.7596344E-01        2
4.3663000E+00  0.0000000E+00  0.0000000E+00  0.0000000E+00  3.1944766E+00  3.7117380E-01        2
4.4115100E+00  0.0000000E+00  0.0000000E+00  0.0000000E+00  3.1315014E+00  3.6634840E-01        2
4.4567200E+00  0.0000000E+00  0.0000000E+00  0.0000000E+00  3.0687176E+00  3.6159339E-01        2
4.5019300E+00  0.0000000E+00  0.0000000E+00  0.0000000E+00  3.0062421E+00  3.5701003E-01        2
4.5210000E+00  0.0000000E+00  0.0000000E+00  0.0000000E+00  2.9800000E+00  3.5511709E-01        2