------- AeroDyn Driver v1.00.x Input File -------------------------------------
DTU 10MW
=======  General Options  ==============================
False         Echo               -   Echo the input to "<rootname>.ech"?  (flag)
"DTU_10MW_AD15.dat"    AD_InputFile    -  Name of the primary AeroDyn input file
------- Turbine Data ------------------------------
          3   NumBlades       - Number of blades (-)
      2.800   HubRad          - Hub radius (m)
      119.0   HubHt           - Hub height (m)
      -7.10   Overhang        - Overhang (m)
        0.0   ShftTilt        - Shaft tilt (deg) - MADS DID NOT INCLUDED TILT !
        5.0   Precone         - Blade precone (deg) - MADS DID NOT INCLUDED PRECONE !
------- I/O Settings ------------------------------
"DTU_10MW"    OutFileRoot     -   Root name for any output files (use "" for .dvr rootname) (-)
True          TabDel          - When   generating formatted output (OutForm=True), make output tab-delimited     (fixed-width otherwise) (flag)
"ES20.3E2"    OutFmt          -    Format used for text tabular output, excluding the time channel.  Resulting field  should be 10 characters. (quoted string)
False         Beep            - Beep     on exit (flag)
-------  Combined-Case Analysis  ------------------------------
         1   NumCases        - Number of cases to run
WndSpeed       ShearExp       RotSpd        Pitch               Yaw           dT             Tmax
(m/s)            (-)          (rpm)         (deg)               (deg)          (s)            (s)
4.0000000E+00  0.0000000E+00  6.0000000E+00  0.0000000E+00  0.0000000E+00  1.0000000E-01  1.0000000E+00
#
6.0000000E+00  0.0000000E+00  6.0000000E+00  0.0000000E+00  0.0000000E+00  1.0000000E-01  30.0000000E+00
8.0000000E+00  0.0000000E+00  6.6900000E+00  0.0000000E+00  0.0000000E+00  1.0000000E-01  30.0000000E+00
9.0000000E+00  0.0000000E+00  7.5300000E+00  0.0000000E+00  0.0000000E+00  1.0000000E-01  30.0000000E+00
1.0000000E+01  0.0000000E+00  8.3600000E+00  0.0000000E+00  0.0000000E+00  1.0000000E-01  30.0000000E+00
1.1000000E+01  0.0000000E+00  9.2000000E+00  0.0000000E+00  0.0000000E+00  1.0000000E-01  30.0000000E+00
1.2000000E+01  0.0000000E+00  9.6000000E+00  0.0000000E+00  0.0000000E+00  1.0000000E-01  30.0000000E+00
1.3000000E+01  0.0000000E+00  7.1900000E+01  0.0000000E+00  0.0000000E+00  1.0000000E-01  5.0000000E+00
1.4000000E+01  0.0000000E+00  7.1900000E+01  0.0000000E+00  0.0000000E+00  1.0000000E-01  5.0000000E+00
1.5000000E+01  0.0000000E+00  7.1900000E+01  0.0000000E+00  0.0000000E+00  1.0000000E-01  5.0000000E+00
1.6000000E+01  0.0000000E+00  7.1900000E+01  0.0000000E+00  0.0000000E+00  1.0000000E-01  5.0000000E+00
1.7000000E+01  0.0000000E+00  7.1900000E+01  0.0000000E+00  0.0000000E+00  1.0000000E-01  5.0000000E+00
1.8000000E+01  0.0000000E+00  7.1900000E+01  0.0000000E+00  0.0000000E+00  1.0000000E-01  5.0000000E+00
1.9000000E+01  0.0000000E+00  7.1900000E+01  0.0000000E+00  0.0000000E+00  1.0000000E-01  5.0000000E+00
2.0000000E+01  0.0000000E+00  7.1900000E+01  0.0000000E+00  0.0000000E+00  1.0000000E-01  5.0000000E+00
2.1000000E+01  0.0000000E+00  7.1900000E+01  0.0000000E+00  0.0000000E+00  1.0000000E-01  5.0000000E+00
2.2000000E+01  0.0000000E+00  7.1900000E+01  0.0000000E+00  0.0000000E+00  1.0000000E-01  5.0000000E+00
2.3000000E+01  0.0000000E+00  7.1900000E+01  0.0000000E+00  0.0000000E+00  1.0000000E-01  5.0000000E+00
2.4000000E+01  0.0000000E+00  7.1900000E+01  0.0000000E+00  0.0000000E+00  1.0000000E-01  5.0000000E+00
2.5000000E+01  0.0000000E+00  7.1900000E+01  0.0000000E+00  0.0000000E+00  1.0000000E-01  5.0000000E+00
