------- AERODYN v15 for OpenFAST INPUT FILE -----------------------------------------------
DTU 10MW onshore reference wind turbine v0.1 - OpenFAST v2.4
======  General Options  ============================================================================
False         Echo               - Echo the input to "<rootname>.AD.ech"?  (flag)
"default"     DTAero             - Time interval for aerodynamic calculations {or "default"} (s)
          1   WakeMod            - Type of wake/induction model (switch) {0=none, 1=BEMT, 2=DBEMT} [WakeMod cannot be 2 when linearizing]
          1   AFAeroMod          - Type of blade airfoil aerodynamics model (switch) {1=steady model, 2=Beddoes-Leishman unsteady model} [AFAeroMod must be 1 when linearizing]
          0   TwrPotent          - Type tower influence on wind based on potential flow around the tower (switch) {0=none, 1=baseline potential flow, 2=potential flow with Bak correction}
          0   TwrShadow          - Calculate tower influence on wind based on downstream tower shadow? (flag)
False          TwrAero            - Calculate tower aerodynamic loads? (flag)
False         FrozenWake         - Assume frozen wake during linearization? (flag) [used only when WakeMod=1 and when linearizing]
False         CavitCheck         - Perform cavitation check? (flag) [AFAeroMod must be 1 when CavitCheck=true]
False         Buoyancy           - Include buoyancy effects? (flag)
False         CompAA             - Flag to compute AeroAcoustics calculation [only used when WakeMod=1 or 2]
"unused"      AA_InputFile       - Aeroacoustics input file
======  Environmental Conditions  ===================================================================
      1.225   AirDens            - Air density (kg/m^3)
  1.784E-05   KinVisc            - Kinematic air viscosity (m^2/s)
     337.29   SpdSound           - Speed of sound (m/s)
     103500   Patm               - Atmospheric pressure (Pa) [used only when CavitCheck=True]
       1700   Pvap               - Vapour pressure of fluid (Pa) [used only when CavitCheck=True]
======  Blade-Element/Momentum Theory Options  ====================================================== [unused when WakeMod=0]
          1   SkewMod            - Type of skewed-wake correction model (switch) {1=uncoupled, 2=Pitt/Peters, 3=coupled} [unused when WakeMod=0]
"default"     SkewModFactor      - Constant used in Pitt/Peters skewed wake model {or "default" is 15/32*pi} (-) [used only when SkewMod=2; unused when WakeMod=0]
True          TipLoss            - Use the Prandtl tip-loss model? (flag) [unused when WakeMod=0]
True          HubLoss            - Use the Prandtl hub-loss model? (flag) [unused when WakeMod=0]
True          TanInd             - Include tangential induction in BEMT calculations? (flag) [unused when WakeMod=0]
True         AIDrag             - Include the drag term in the axial-induction calculation? (flag) [unused when WakeMod=0]
True         TIDrag             - Include the drag term in the tangential-induction calculation? (flag) [unused when WakeMod=0 or TanInd=FALSE]
"Default"     IndToler           - Convergence tolerance for BEMT nonlinear solve residual equation {or "default"} (-) [unused when WakeMod=0]
        200   MaxIter            - Maximum number of iteration steps (-) [unused when WakeMod=0]
======  Dynamic Blade-Element/Momentum Theory Options  ============================================== [used only when WakeMod=2]
          2   DBEMT_Mod          - Type of dynamic BEMT (DBEMT) model {1=constant tau1, 2=time-dependent tau1} (-) [used only when WakeMod=2]
          4   tau1_const         - Time constant for DBEMT (s) [used only when WakeMod=2 and DBEMT_Mod=1]
======  OLAF -- cOnvecting LAgrangian Filaments (Free Vortex Wake) Theory Options  ================== [used only when WakeMod=3]
"unused"      OLAFInputFileName - Input file for OLAF [used only when WakeMod=3]
======  Beddoes-Leishman Unsteady Airfoil Aerodynamics Options  ===================================== [used only when AFAeroMod=2]
          1   UAMod              - Unsteady Aero Model Switch (switch) {1=Baseline model (Original), 2=Gonzalez's variant (changes in Cn,Cc,Cm), 3=Minemma/Pierce variant (changes in Cc and Cm)} [used only when AFAeroMod=2]
True          FLookup            - Flag to indicate whether a lookup for f' will be calculated (TRUE) or whether best-fit exponential equations will be used (FALSE); if FALSE S1-S4 must be provided in airfoil input files (flag) [used only when AFAeroMod=2]
======  Airfoil Information =========================================================================
          1   AFTabMod           - Interpolation method for multiple airfoil tables {1=1D interpolation on AoA (first table only); 2=2D interpolation on AoA and Re; 3=2D interpolation on AoA and UserProp} (-)
          1   InCol_Alfa         - The column in the airfoil tables that contains the angle of attack (-)
          2   InCol_Cl           - The column in the airfoil tables that contains the lift coefficient (-)
          3   InCol_Cd           - The column in the airfoil tables that contains the drag coefficient (-)
          4   InCol_Cm           - The column in the airfoil tables that contains the pitching-moment coefficient; use zero if there is no Cm column (-)
          0   InCol_Cpmin        - The column in the airfoil tables that contains the Cpmin coefficient; use zero if there is no Cpmin column (-)
          6   NumAFfiles         - Number of airfoil files used (-)
"AeroData/Cylinder.dat"    AFNames            - Airfoil file names (NumAFfiles lines) (quoted strings)
"AeroData/FFA_W3_600.dat"                  - "Airfoils/ffaw3600.dat"
"AeroData/FFA_W3_480.dat"                  - "Airfoils/ffaw3480.dat"
"AeroData/FFA_W3_360.dat"                  - "Airfoils/ffaw3360.dat"
"AeroData/FFA_W3_301.dat"                  - "Airfoils/ffaw3301.dat"
"AeroData/FFA_W3_241.dat"                  - "Airfoils/ffaw3241.dat"
======  Rotor/Blade Properties  =====================================================================
True          UseBlCm            - Include aerodynamic pitching moment in calculations?  (flag)
"DTU_10MW_ADBlade.dat"    ADBlFile(1)        - Name of file containing distributed aerodynamic properties for Blade #1 (-)
"DTU_10MW_ADBlade.dat"    ADBlFile(2)        - Name of file containing distributed aerodynamic properties for Blade #2 (-) [unused if NumBl < 2]
"DTU_10MW_ADBlade.dat"    ADBlFile(3)        - Name of file containing distributed aerodynamic properties for Blade #3 (-) [unused if NumBl < 3]
======  Hub Properties ============================================================================== [used only when Buoyancy=True]
7.2     VolHub                   - Hub volume (m^3)
0.2222  HubCenBx                 - Hub center of buoyancy x direction offset (m)
======  Nacelle Properties ========================================================================== [used only when Buoyancy=True]
38.6    VolNac                   - Nacelle volume (m^3)
0.43,0,0 NacCenB                 - Position of nacelle center of buoyancy from yaw bearing in nacelle coordinates (m)
======  Tail fin Aerodynamics ======================================================================== 
False         TFinAero           - Calculate tail fin aerodynamics model (flag)
"unused"      TFinFile           - Input file for tail fin aerodynamics [used only when TFinAero=True]
======  Tower Influence and Aerodynamics ================================================ [used only when TwrPotent/=0, TwrShadow=True, or TwrAero=True]
        11     NumTwrNds         - Number of tower nodes used in the analysis  (-) [used only when TwrPotent/=0, TwrShadow=True, or TwrAero=True]
TwrElev        TwrDiam        TwrCd			TwrTI 		TwrCb !TwrTI used only with TwrShadow=2, TwrCb used only with Buoyancy=True
(m)              (m)           (-)	 		 (-)         (-)
0.000E+00	8.300E+00     1.0000E+00		 0.0         1.0
1.150E+01	8.022E+00     1.0000E+00		 0.0         1.0
2.300E+01	7.743E+00     1.0000E+00		 0.0         1.0
3.450E+01	7.465E+00     1.0000E+00		 0.0         1.0
4.600E+01	7.186E+00     1.0000E+00		 0.0         1.0
5.750E+01	6.908E+00     1.0000E+00		 0.0         1.0
6.900E+01	6.629E+00     1.0000E+00		 0.0         1.0
8.050E+01	6.351E+00     1.0000E+00		 0.0         1.0
9.200E+01	6.072E+00     1.0000E+00		 0.0         1.0
1.035E+02	5.794E+00     1.0000E+00		 0.0         1.0
1.156E+02	5.500E+00     1.0000E+00		 0.0         1.0
======  Outputs  ====================================================================================
False          SumPrint           - Generate a summary file listing input options and interpolated properties to "<rootname>.AD.sum"?  (flag)
          9   NBlOuts             - Number of blade node outputs [0 - 9] (-)
          3, 6, 10, 14, 20, 27, 30, 34, 37    BlOutNd             - Blade nodes whose values will be output  (-)
          0   NTwOuts             - Number of tower node outputs [0 - 9]  (-)
          1,          2,          6    TwOutNd             - Tower nodes whose values will be output  (-)
                   OutList             - The next line(s) contains a list of output parameters.  See s for a listing of available output channels, (-)
RtAeroPwr
RtAeroFxh
RtAeroMxh
RtAeroCp
RtAeroCq
RtAeroCt
END of input file (the word "END" must appear in the first 3 columns of this last OutList line)
---------------------- NODE OUTPUTS --------------------------------------------
          1   BldNd_BladesOut  - Blades to output
         99   - Blade nodes on each blade (currently unused)
                   OutList             - The next line(s) contains a list of output parameters.  See s for a listing of available output channels, (-)
"VUndx"
"VUndy"
"VUndz"
"Ft"
"Fn"
"Fy"
"Fx"
"Ct"
"Cn"
"Cy"
"Cx"
"Alpha"
END of input file (the word "END" must appear in the first 3 columns of this last OutList line)
