-----  AeroDyn Driver v1.00.x Input File  --------------------------------------
UAE           Phase         - 3 turbine (BEM)
-----  Input Configuration  ----------------------------------------------------
True          Echo          - Echo input parameters to "<rootname>.ech"?
"../DTU_10MW_AeroDyn15_Baseline.dat" AD_InputFile  - Name of the primary AeroDyn input file
-----  Turbine Data  -----------------------------------------------------------
3             NumBlades     - Number of blades (-)
2.8           HubRad        - Hub radius (m)
119           HubHt         - Hub height (m)
-7.1          Overhang      - Overhang (m) default:-7.1
-5            ShftTilt      - Shaft tilt (deg)-5 -2.5(precone)
-2.5          Precone       -
-----  I/O Settings  -----------------------------------------------------------
"DTU10Mw"     OutFileRoot   - Root name for any output files (use "" for .dvr rootname) (-)
True          TabDel        - When generating formatted output (OutForm=True), make output tab-delimited (fixed-width otherwise) (flag)
"ES12.6E1"    OutFmt        - Format used for text tabular output, excluding the time channel. Resulting field should be 10 characters. (quoted string)
True          Beep          - Beep on exit (flag)
-----  Combined-Case Analysis  -------------------------------------------------
104           NumCases      - Number of cases to run
WndSpeed        ShearExp        RotSpd          Pitch           Yaw             dT              Tmax           
(m/s)           (-)             (rpm)           (deg)           (deg)           (s)             (s)            
 1.14000000e+01	              0	 1.55604292e+01	             -1	              0	 1.00000000e-02	 1.00000000e-01
 1.14000000e+01	              0	 1.55604292e+01	-7.50000000e-01	              0	 1.00000000e-02	 1.00000000e-01
 1.14000000e+01	              0	 1.55604292e+01	-5.00000000e-01	              0	 1.00000000e-02	 1.00000000e-01
 1.14000000e+01	              0	 1.55604292e+01	-2.50000000e-01	              0	 1.00000000e-02	 1.00000000e-01
 1.14000000e+01	              0	 1.55604292e+01	              0	              0	 1.00000000e-02	 1.00000000e-01
 1.14000000e+01	              0	 1.55604292e+01	 2.50000000e-01	              0	 1.00000000e-02	 1.00000000e-01
 1.14000000e+01	              0	 1.55604292e+01	 5.00000000e-01	              0	 1.00000000e-02	 1.00000000e-01
 1.14000000e+01	              0	 1.55604292e+01	 7.50000000e-01	              0	 1.00000000e-02	 1.00000000e-01
 1.14000000e+01	              0	 1.55604292e+01	              1	              0	 1.00000000e-02	 1.00000000e-01
 1.14000000e+01	              0	 1.55604292e+01	 1.25000000e+00	              0	 1.00000000e-02	 1.00000000e-01
 1.14000000e+01	              0	 1.55604292e+01	 1.50000000e+00	              0	 1.00000000e-02	 1.00000000e-01
 1.14000000e+01	              0	 1.55604292e+01	 1.75000000e+00	              0	 1.00000000e-02	 1.00000000e-01
 1.14000000e+01	              0	 1.55604292e+01	              2	              0	 1.00000000e-02	 1.00000000e-01
 1.14000000e+01	              0	 1.55604292e+01	 2.25000000e+00	              0	 1.00000000e-02	 1.00000000e-01
 1.14000000e+01	              0	 1.55604292e+01	 2.50000000e+00	              0	 1.00000000e-02	 1.00000000e-01
 1.14000000e+01	              0	 1.55604292e+01	 2.75000000e+00	              0	 1.00000000e-02	 1.00000000e-01
 1.14000000e+01	              0	 1.55604292e+01	              3	              0	 1.00000000e-02	 1.00000000e-01
 1.14000000e+01	              0	 1.55604292e+01	 3.25000000e+00	              0	 1.00000000e-02	 1.00000000e-01
 1.14000000e+01	              0	 1.55604292e+01	 3.50000000e+00	              0	 1.00000000e-02	 1.00000000e-01
 1.14000000e+01	              0	 1.55604292e+01	 3.75000000e+00	              0	 1.00000000e-02	 1.00000000e-01
 1.14000000e+01	              0	 1.55604292e+01	              4	              0	 1.00000000e-02	 1.00000000e-01
 1.14000000e+01	              0	 1.55604292e+01	 4.25000000e+00	              0	 1.00000000e-02	 1.00000000e-01
 1.14000000e+01	              0	 1.55604292e+01	 4.50000000e+00	              0	 1.00000000e-02	 1.00000000e-01
 1.14000000e+01	              0	 1.55604292e+01	 4.75000000e+00	              0	 1.00000000e-02	 1.00000000e-01
 1.14000000e+01	              0	 1.55604292e+01	              5	              0	 1.00000000e-02	 1.00000000e-01
 1.14000000e+01	              0	 1.55604292e+01	 5.25000000e+00	              0	 1.00000000e-02	 1.00000000e-01
 1.14000000e+01	              0	 1.55604292e+01	 5.50000000e+00	              0	 1.00000000e-02	 1.00000000e-01
 1.14000000e+01	              0	 1.55604292e+01	 5.75000000e+00	              0	 1.00000000e-02	 1.00000000e-01
 1.14000000e+01	              0	 1.55604292e+01	              6	              0	 1.00000000e-02	 1.00000000e-01
 1.14000000e+01	              0	 1.55604292e+01	 6.25000000e+00	              0	 1.00000000e-02	 1.00000000e-01
 1.14000000e+01	              0	 1.55604292e+01	 6.50000000e+00	              0	 1.00000000e-02	 1.00000000e-01
 1.14000000e+01	              0	 1.55604292e+01	 6.75000000e+00	              0	 1.00000000e-02	 1.00000000e-01
 1.14000000e+01	              0	 1.55604292e+01	              7	              0	 1.00000000e-02	 1.00000000e-01
 1.14000000e+01	              0	 1.55604292e+01	 7.25000000e+00	              0	 1.00000000e-02	 1.00000000e-01
 1.14000000e+01	              0	 1.55604292e+01	 7.50000000e+00	              0	 1.00000000e-02	 1.00000000e-01
 1.14000000e+01	              0	 1.55604292e+01	 7.75000000e+00	              0	 1.00000000e-02	 1.00000000e-01
 1.14000000e+01	              0	 1.55604292e+01	              8	              0	 1.00000000e-02	 1.00000000e-01
 1.14000000e+01	              0	 1.55604292e+01	 8.25000000e+00	              0	 1.00000000e-02	 1.00000000e-01
 1.14000000e+01	              0	 1.55604292e+01	 8.50000000e+00	              0	 1.00000000e-02	 1.00000000e-01
 1.14000000e+01	              0	 1.55604292e+01	 8.75000000e+00	              0	 1.00000000e-02	 1.00000000e-01
 1.14000000e+01	              0	 1.55604292e+01	              9	              0	 1.00000000e-02	 1.00000000e-01
 1.14000000e+01	              0	 1.55604292e+01	 9.25000000e+00	              0	 1.00000000e-02	 1.00000000e-01
 1.14000000e+01	              0	 1.55604292e+01	 9.50000000e+00	              0	 1.00000000e-02	 1.00000000e-01
 1.14000000e+01	              0	 1.55604292e+01	 9.75000000e+00	              0	 1.00000000e-02	 1.00000000e-01
 1.14000000e+01	              0	 1.55604292e+01	             10	              0	 1.00000000e-02	 1.00000000e-01
 1.14000000e+01	              0	 1.55604292e+01	 1.02500000e+01	              0	 1.00000000e-02	 1.00000000e-01
 1.14000000e+01	              0	 1.55604292e+01	 1.05000000e+01	              0	 1.00000000e-02	 1.00000000e-01
 1.14000000e+01	              0	 1.55604292e+01	 1.07500000e+01	              0	 1.00000000e-02	 1.00000000e-01
 1.14000000e+01	              0	 1.55604292e+01	             11	              0	 1.00000000e-02	 1.00000000e-01
 1.14000000e+01	              0	 1.55604292e+01	 1.12500000e+01	              0	 1.00000000e-02	 1.00000000e-01
 1.14000000e+01	              0	 1.55604292e+01	 1.15000000e+01	              0	 1.00000000e-02	 1.00000000e-01
 1.14000000e+01	              0	 1.55604292e+01	 1.17500000e+01	              0	 1.00000000e-02	 1.00000000e-01
 1.14000000e+01	              0	 1.55604292e+01	             12	              0	 1.00000000e-02	 1.00000000e-01
 1.14000000e+01	              0	 1.55604292e+01	 1.22500000e+01	              0	 1.00000000e-02	 1.00000000e-01
 1.14000000e+01	              0	 1.55604292e+01	 1.25000000e+01	              0	 1.00000000e-02	 1.00000000e-01
 1.14000000e+01	              0	 1.55604292e+01	 1.27500000e+01	              0	 1.00000000e-02	 1.00000000e-01
 1.14000000e+01	              0	 1.55604292e+01	             13	              0	 1.00000000e-02	 1.00000000e-01
 1.14000000e+01	              0	 1.55604292e+01	 1.32500000e+01	              0	 1.00000000e-02	 1.00000000e-01
 1.14000000e+01	              0	 1.55604292e+01	 1.35000000e+01	              0	 1.00000000e-02	 1.00000000e-01
 1.14000000e+01	              0	 1.55604292e+01	 1.37500000e+01	              0	 1.00000000e-02	 1.00000000e-01
 1.14000000e+01	              0	 1.55604292e+01	             14	              0	 1.00000000e-02	 1.00000000e-01
 1.14000000e+01	              0	 1.55604292e+01	 1.42500000e+01	              0	 1.00000000e-02	 1.00000000e-01
 1.14000000e+01	              0	 1.55604292e+01	 1.45000000e+01	              0	 1.00000000e-02	 1.00000000e-01
 1.14000000e+01	              0	 1.55604292e+01	 1.47500000e+01	              0	 1.00000000e-02	 1.00000000e-01
 1.14000000e+01	              0	 1.55604292e+01	             15	              0	 1.00000000e-02	 1.00000000e-01
 1.14000000e+01	              0	 1.55604292e+01	 1.52500000e+01	              0	 1.00000000e-02	 1.00000000e-01
 1.14000000e+01	              0	 1.55604292e+01	 1.55000000e+01	              0	 1.00000000e-02	 1.00000000e-01
 1.14000000e+01	              0	 1.55604292e+01	 1.57500000e+01	              0	 1.00000000e-02	 1.00000000e-01
 1.14000000e+01	              0	 1.55604292e+01	             16	              0	 1.00000000e-02	 1.00000000e-01
 1.14000000e+01	              0	 1.55604292e+01	 1.62500000e+01	              0	 1.00000000e-02	 1.00000000e-01
 1.14000000e+01	              0	 1.55604292e+01	 1.65000000e+01	              0	 1.00000000e-02	 1.00000000e-01
 1.14000000e+01	              0	 1.55604292e+01	 1.67500000e+01	              0	 1.00000000e-02	 1.00000000e-01
 1.14000000e+01	              0	 1.55604292e+01	             17	              0	 1.00000000e-02	 1.00000000e-01
 1.14000000e+01	              0	 1.55604292e+01	 1.72500000e+01	              0	 1.00000000e-02	 1.00000000e-01
 1.14000000e+01	              0	 1.55604292e+01	 1.75000000e+01	              0	 1.00000000e-02	 1.00000000e-01
 1.14000000e+01	              0	 1.55604292e+01	 1.77500000e+01	              0	 1.00000000e-02	 1.00000000e-01
 1.14000000e+01	              0	 1.55604292e+01	             18	              0	 1.00000000e-02	 1.00000000e-01
 1.14000000e+01	              0	 1.55604292e+01	 1.82500000e+01	              0	 1.00000000e-02	 1.00000000e-01
 1.14000000e+01	              0	 1.55604292e+01	 1.85000000e+01	              0	 1.00000000e-02	 1.00000000e-01
 1.14000000e+01	              0	 1.55604292e+01	 1.87500000e+01	              0	 1.00000000e-02	 1.00000000e-01
 1.14000000e+01	              0	 1.55604292e+01	             19	              0	 1.00000000e-02	 1.00000000e-01
 1.14000000e+01	              0	 1.55604292e+01	 1.92500000e+01	              0	 1.00000000e-02	 1.00000000e-01
 1.14000000e+01	              0	 1.55604292e+01	 1.95000000e+01	              0	 1.00000000e-02	 1.00000000e-01
 1.14000000e+01	              0	 1.55604292e+01	 1.97500000e+01	              0	 1.00000000e-02	 1.00000000e-01
 1.14000000e+01	              0	 1.55604292e+01	             20	              0	 1.00000000e-02	 1.00000000e-01
 1.14000000e+01	              0	 1.55604292e+01	 2.02500000e+01	              0	 1.00000000e-02	 1.00000000e-01
 1.14000000e+01	              0	 1.55604292e+01	 2.05000000e+01	              0	 1.00000000e-02	 1.00000000e-01
 1.14000000e+01	              0	 1.55604292e+01	 2.07500000e+01	              0	 1.00000000e-02	 1.00000000e-01
 1.14000000e+01	              0	 1.55604292e+01	             21	              0	 1.00000000e-02	 1.00000000e-01
 1.14000000e+01	              0	 1.55604292e+01	 2.12500000e+01	              0	 1.00000000e-02	 1.00000000e-01
 1.14000000e+01	              0	 1.55604292e+01	 2.15000000e+01	              0	 1.00000000e-02	 1.00000000e-01
 1.14000000e+01	              0	 1.55604292e+01	 2.17500000e+01	              0	 1.00000000e-02	 1.00000000e-01
 1.14000000e+01	              0	 1.55604292e+01	             22	              0	 1.00000000e-02	 1.00000000e-01
 1.14000000e+01	              0	 1.55604292e+01	 2.22500000e+01	              0	 1.00000000e-02	 1.00000000e-01
 1.14000000e+01	              0	 1.55604292e+01	 2.25000000e+01	              0	 1.00000000e-02	 1.00000000e-01
 1.14000000e+01	              0	 1.55604292e+01	 2.27500000e+01	              0	 1.00000000e-02	 1.00000000e-01
 1.14000000e+01	              0	 1.55604292e+01	             23	              0	 1.00000000e-02	 1.00000000e-01
 1.14000000e+01	              0	 1.55604292e+01	 2.32500000e+01	              0	 1.00000000e-02	 1.00000000e-01
 1.14000000e+01	              0	 1.55604292e+01	 2.35000000e+01	              0	 1.00000000e-02	 1.00000000e-01
 1.14000000e+01	              0	 1.55604292e+01	 2.37500000e+01	              0	 1.00000000e-02	 1.00000000e-01
 1.14000000e+01	              0	 1.55604292e+01	             24	              0	 1.00000000e-02	 1.00000000e-01
 1.14000000e+01	              0	 1.55604292e+01	 2.42500000e+01	              0	 1.00000000e-02	 1.00000000e-01
 1.14000000e+01	              0	 1.55604292e+01	 2.45000000e+01	              0	 1.00000000e-02	 1.00000000e-01
 1.14000000e+01	              0	 1.55604292e+01	 2.47500000e+01	              0	 1.00000000e-02	 1.00000000e-01